/*--------------------------------*- C++ -*----------------------------------*\
| Jewlz FluidForce Simulator - Generated OpenFOAM Dictionary                  |
\*---------------------------------------------------------------------------*/
FoamFile
{
    version     2.0;
    format      ascii;
    class       dictionary;
    object      snappyHexMeshDict;
}
// ************************************************************************* //

castellatedMesh true;
snap            true;
addLayers       false;

geometry
{
    uploadedObject.stl
    {
        type triSurfaceMesh;
        name object;
    }
}

castellatedMeshControls
{
    maxLocalCells 1000000;
    maxGlobalCells 3000000;
    minRefinementCells 0;
    nCellsBetweenLevels 3;

    features
    (
    );

    refinementSurfaces
    {
        object
        {
            level (4 4);
            patchInfo
            {
                type wall;
            }
        }
    }

    resolveFeatureAngle 30;

    refinementRegions
    {
    }

    locationInMesh (-0.23367999649047855 -0.11302999830245973 -0.11302999830245973);

    allowFreeStandingZoneFaces true;
}

snapControls
{
    nSmoothPatch 3;
    tolerance 2.0;
    nSolveIter 30;
    nRelaxIter 5;
}

addLayersControls
{
    relativeSizes true;
    layers
    {
    }
    expansionRatio 1.2;
    finalLayerThickness 0.3;
    minThickness 0.1;
    nGrow 0;
    featureAngle 60;
    nRelaxIter 3;
    nSmoothSurfaceNormals 1;
    nSmoothNormals 3;
    nSmoothThickness 10;
    maxFaceThicknessRatio 0.5;
    maxThicknessToMedialRatio 0.3;
    minMedianAxisAngle 90;
    nBufferCellsNoExtrude 0;
    nLayerIter 50;
}

meshQualityControls
{
    maxNonOrtho 65;
    maxBoundarySkewness 20;
    maxInternalSkewness 4;
    maxConcave 80;
    minVol 1e-13;
    minTetQuality 1e-15;
    minArea -1;
    minTwist 0.02;
    minDeterminant 0.001;
    minFaceWeight 0.02;
    minVolRatio 0.01;
    minTriangleTwist -1;
    nSmoothScale 4;
    errorReduction 0.75;
}

debug 0;
mergeTolerance 1e-6;
