/*--------------------------------*- C++ -*----------------------------------*\
| Jewlz FluidForce Simulator - Generated OpenFOAM Dictionary                  |
\*---------------------------------------------------------------------------*/
FoamFile
{
    version     2.0;
    format      ascii;
    class       volScalarField;
    object      p;
}
// ************************************************************************* //

dimensions      [0 2 -2 0 0 0 0];

internalField   uniform 0;

boundaryField
{
    xMax
    {
        type zeroGradient;
    }

    xMin
    {
        type fixedValue;
        value uniform 0;
    }

    yMin
    {
        type zeroGradient;
    }
    yMax
    {
        type zeroGradient;
    }
    zMin
    {
        type zeroGradient;
    }
    zMax
    {
        type zeroGradient;
    }

    object
    {
        type zeroGradient;
    }
}
